/*--------------------------------*- C++ -*----------------------------------*\
| =========                 |                                                 |
| \\      /  F ield         | OpenFOAM: The Open Source CFD Toolbox           |
|  \\    /   O peration     | Version:  3.0.1                                 |
|   \\  /    A nd           | Web:      www.OpenFOAM.org                      |
|    \\/     M anipulation  |                                                 |
\*---------------------------------------------------------------------------*/
FoamFile
{
    version     2.0;
    format      ascii;
    class       dictionary;
    location    "constant";
    object      fgmProperties;
}
// * * * * * * * * * * * * * * * * * * * * * * * * * * * * * * * * * * * * * //

PV
(
0
0.00125
0.0025
0.00375
0.005
0.00625
0.0075
0.00875
0.01
0.01125
0.0125
0.01375
0.015
0.01625
0.0175
0.01875
0.02
0.02125
0.0225
0.02375
0.025
0.02625
0.0275
0.02875
0.03
0.03125
0.0325
0.03375
0.035
0.03625
0.0375
0.03875
0.04
0.04125
0.0425
0.04375
0.045
0.04625
0.0475
0.04875
0.05
0.05125
0.0525
0.05375
0.055
0.05625
0.0575
0.05875
0.06
0.06125
0.0625
0.06375
0.065
0.06625
0.0675
0.06875
0.07
0.07125
0.0725
0.07375
0.075
0.07625
0.0775
0.07875
0.08
0.08125
0.0825
0.08375
0.085
0.08625
0.0875
0.08875
0.09
0.09125
0.0925
0.09375
0.095
0.09625
0.0975
0.09875
0.1
0.10125
0.1025
0.10375
0.105
0.10625
0.1075
0.10875
0.11
0.11125
0.1125
0.11375
0.115
0.11625
0.1175
0.11875
0.12
0.12125
0.1225
0.12375
0.125
0.12625
0.1275
0.12875
0.13
0.13125
0.1325
0.13375
0.135
0.13625
0.1375
0.13875
0.14
0.14125
0.1425
0.14375
0.145
0.14625
0.1475
0.14875
0.15
0.15125
0.1525
0.15375
0.155
0.15625
0.1575
0.15875
0.16
0.16125
0.1625
0.16375
0.165
0.16625
0.1675
0.16875
0.17
0.17125
0.1725
0.17375
0.175
0.17625
0.1775
0.17875
0.18
0.18125
0.1825
0.18375
0.185
0.18625
0.1875
0.18875
0.19
0.19125
0.1925
0.19375
0.195
0.19625
0.1975
0.19875
0.2
0.20125
0.2025
0.20375
0.205
0.20625
0.2075
0.20875
0.21
0.21125
0.2125
0.21375
0.215
0.21625
0.2175
0.21875
0.22
0.22125
0.2225
0.22375
0.225
0.22625
0.2275
0.22875
0.23
0.23125
0.2325
0.23375
0.235
0.23625
0.2375
0.23875
0.24
0.24125
0.2425
0.24375
0.245
0.24625
0.2475
0.24875
0.25
0.25125
0.2525
0.25375
0.255
0.25625
0.2575
0.25875
0.26
0.26125
0.2625
0.26375
0.265
0.26625
0.2675
0.26875
0.27
0.27125
0.2725
0.27375
0.275
0.27625
0.2775
0.27875
0.28
0.28125
0.2825
0.28375
0.285
0.28625
0.2875
0.28875
0.29
0.29125
0.2925
0.29375
0.295
0.29625
0.2975
0.29875
0.3
0.30125
0.3025
0.30375
0.305
0.30625
0.3075
0.30875
0.31
0.31125
0.3125
0.31375
0.315
0.31625
0.3175
0.31875
0.32
0.32125
0.3225
0.32375
0.325
0.32625
0.3275
0.32875
0.33
0.33125
0.3325
0.33375
0.335
0.33625
0.3375
0.33875
0.34
0.34125
0.3425
0.34375
0.345
0.34625
0.3475
0.34875
0.35
0.35125
0.3525
0.35375
0.355
0.35625
0.3575
0.35875
0.36
0.36125
0.3625
0.36375
0.365
0.36625
0.3675
0.36875
0.37
0.37125
0.3725
0.37375
0.375
0.37625
0.3775
0.37875
0.38
0.38125
0.3825
0.38375
0.385
0.38625
0.3875
0.38875
0.39
0.39125
0.3925
0.39375
0.395
0.39625
0.3975
0.39875
0.4
0.40125
0.4025
0.40375
0.405
0.40625
0.4075
0.40875
0.41
0.41125
0.4125
0.41375
0.415
0.41625
0.4175
0.41875
0.42
0.42125
0.4225
0.42375
0.425
0.42625
0.4275
0.42875
0.43
0.43125
0.4325
0.43375
0.435
0.43625
0.4375
0.43875
0.44
0.44125
0.4425
0.44375
0.445
0.44625
0.4475
0.44875
0.45
0.45125
0.4525
0.45375
0.455
0.45625
0.4575
0.45875
0.46
0.46125
0.4625
0.46375
0.465
0.46625
0.4675
0.46875
0.47
0.47125
0.4725
0.47375
0.475
0.47625
0.4775
0.47875
0.48
0.48125
0.4825
0.48375
0.485
0.48625
0.4875
0.48875
0.49
0.49125
0.4925
0.49375
0.495
0.49625
0.4975
0.49875
0.5
0.50125
0.5025
0.50375
0.505
0.50625
0.5075
0.50875
0.51
0.51125
0.5125
0.51375
0.515
0.51625
0.5175
0.51875
0.52
0.52125
0.5225
0.52375
0.525
0.52625
0.5275
0.52875
0.53
0.53125
0.5325
0.53375
0.535
0.53625
0.5375
0.53875
0.54
0.54125
0.5425
0.54375
0.545
0.54625
0.5475
0.54875
0.55
0.55125
0.5525
0.55375
0.555
0.55625
0.5575
0.55875
0.56
0.56125
0.5625
0.56375
0.565
0.56625
0.5675
0.56875
0.57
0.57125
0.5725
0.57375
0.575
0.57625
0.5775
0.57875
0.58
0.58125
0.5825
0.58375
0.585
0.58625
0.5875
0.58875
0.59
0.59125
0.5925
0.59375
0.595
0.59625
0.5975
0.59875
0.6
0.60125
0.6025
0.60375
0.605
0.60625
0.6075
0.60875
0.61
0.61125
0.6125
0.61375
0.615
0.61625
0.6175
0.61875
0.62
0.62125
0.6225
0.62375
0.625
0.62625
0.6275
0.62875
0.63
0.63125
0.6325
0.63375
0.635
0.63625
0.6375
0.63875
0.64
0.64125
0.6425
0.64375
0.645
0.64625
0.6475
0.64875
0.65
0.65125
0.6525
0.65375
0.655
0.65625
0.6575
0.65875
0.66
0.66125
0.6625
0.66375
0.665
0.66625
0.6675
0.66875
0.67
0.67125
0.6725
0.67375
0.675
0.67625
0.6775
0.67875
0.68
0.68125
0.6825
0.68375
0.685
0.68625
0.6875
0.68875
0.69
0.69125
0.6925
0.69375
0.695
0.69625
0.6975
0.69875
0.7
0.70125
0.7025
0.70375
0.705
0.70625
0.7075
0.70875
0.71
0.71125
0.7125
0.71375
0.715
0.71625
0.7175
0.71875
0.72
0.72125
0.7225
0.72375
0.725
0.72625
0.7275
0.72875
0.73
0.73125
0.7325
0.73375
0.735
0.73625
0.7375
0.73875
0.74
0.74125
0.7425
0.74375
0.745
0.74625
0.7475
0.74875
0.75
0.75125
0.7525
0.75375
0.755
0.75625
0.7575
0.75875
0.76
0.76125
0.7625
0.76375
0.765
0.76625
0.7675
0.76875
0.77
0.77125
0.7725
0.77375
0.775
0.77625
0.7775
0.77875
0.78
0.78125
0.7825
0.78375
0.785
0.78625
0.7875
0.78875
0.79
0.79125
0.7925
0.79375
0.795
0.79625
0.7975
0.79875
0.8
0.80125
0.8025
0.80375
0.805
0.80625
0.8075
0.80875
0.81
0.81125
0.8125
0.81375
0.815
0.81625
0.8175
0.81875
0.82
0.82125
0.8225
0.82375
0.825
0.82625
0.8275
0.82875
0.83
0.83125
0.8325
0.83375
0.835
0.83625
0.8375
0.83875
0.84
0.84125
0.8425
0.84375
0.845
0.84625
0.8475
0.84875
0.85
0.85125
0.8525
0.85375
0.855
0.85625
0.8575
0.85875
0.86
0.86125
0.8625
0.86375
0.865
0.86625
0.8675
0.86875
0.87
0.87125
0.8725
0.87375
0.875
0.87625
0.8775
0.87875
0.88
0.88125
0.8825
0.88375
0.885
0.88625
0.8875
0.88875
0.89
0.89125
0.8925
0.89375
0.895
0.89625
0.8975
0.89875
0.9
0.90125
0.9025
0.90375
0.905
0.90625
0.9075
0.90875
0.91
0.91125
0.9125
0.91375
0.915
0.91625
0.9175
0.91875
0.92
0.92125
0.9225
0.92375
0.925
0.92625
0.9275
0.92875
0.93
0.93125
0.9325
0.93375
0.935
0.93625
0.9375
0.93875
0.94
0.94125
0.9425
0.94375
0.945
0.94625
0.9475
0.94875
0.95
0.95125
0.9525
0.95375
0.955
0.95625
0.9575
0.95875
0.96
0.96125
0.9625
0.96375
0.965
0.96625
0.9675
0.96875
0.97
0.97125
0.9725
0.97375
0.975
0.97625
0.9775
0.97875
0.98
0.98125
0.9825
0.98375
0.985
0.98625
0.9875
0.98875
0.99
0.99125
0.9925
0.99375
0.995
0.99625
0.9975
0.99875
1
);

sourcePV
(
1.96934304696436E-33
0.00180376957149916
0.00425447310464467
0.00739022726740807
0.01128976258875
0.0160196008833033
0.0216364398819551
0.0281977619827146
0.0357533287041457
0.0443562077087431
0.0540642810095182
0.0649358222361514
0.077035646538727
0.0904361938210734
0.105218401295934
0.121472422873998
0.139298178758633
0.158805672323586
0.180114801336207
0.203356026745569
0.228666589529093
0.256198552240567
0.28610170615161
0.318543418950346
0.35369511878609
0.3917226400901
0.432797988787897
0.477100627355999
0.524815667841078
0.576123918972417
0.631176746239533
0.690151267576747
0.75323382506376
0.820583264951263
0.892321643701153
0.968622814871983
1.04965727856784
1.13549909253491
1.22629409207547
1.32220717717551
1.42327267921942
1.52960990620431
1.64136643474432
1.75852799202732
1.88121025011869
2.00951734377177
2.14339632099253
2.28298397345605
2.42827863346256
2.57926136222496
2.73605523095057
2.89853945667107
3.0668010741919
3.24082303483178
3.42052475864704
3.60600568524079
3.7970913995058
3.99387832364673
4.19623519464912
4.40414563683519
4.61760229092499
4.83644865628193
5.06076019616408
5.29031707230918
5.52520699353518
5.76521215331571
6.01038072946236
6.26054051323865
6.51566801899797
6.77566218260324
7.04041734868565
7.30989841384979
7.58393650260503
7.86253926058063
8.14550052237706
8.43285116885052
8.72436504239937
9.02008372970563
9.31977220632614
9.62347547251091
9.93095640927699
10.2422595823489
10.5571499135842
10.8756692990088
11.1975878236558
11.5229428038176
11.8515126791327
12.1833278176934
12.5181789567289
12.8560859980461
13.1968574307819
13.5404970926798
13.8868388500429
14.2358626094566
14.5874374169135
14.9415092412806
15.2979930913493
15.6567920754202
16.0178711342329
16.3810972598725
16.7464727870079
17.1138448252079
17.4832360757531
17.8544923018387
18.2276380256507
18.6025375569719
18.9791971955839
19.3575204023119
19.7374758012709
20.1190208741774
20.5020814948581
20.8866615066397
21.2726689749649
21.660122235
22.0489416546543
22.4391338999101
22.8306529626531
23.223479110535
23.6176043953901
24.0129931022794
24.4096547355799
24.807564244698
25.2067244748586
25.6071345282233
26.0087894061927
26.4117016749104
26.8158805535405
27.221328382168
27.6280834148169
28.0361365566685
28.4455375879325
28.8563035643575
29.2684539947736
29.6820612312991
30.0971076420149
30.5136944643865
30.9318229495637
31.3515533393893
31.7729767776267
32.1960744194477
32.6209963234447
33.0477271771702
33.4763690219089
33.9070285153233
34.3396887934913
34.7745426266993
35.211566775197
35.6508929687421
36.0926522816036
36.5368236116306
36.9836375526345
37.4330764677735
37.8852805683211
38.3404225314628
38.7984668759464
39.2596715645773
39.7240513601029
40.1917226512398
40.6629147232041
41.1375800377448
41.6159746466099
42.0981932111998
42.5842874237958
43.0745417196041
43.5689274428484
44.0676585095753
44.5709308922449
45.0787340987707
45.5913661770009
46.1088831334933
46.6314097703931
47.1592225839641
47.692310274622
48.2309146723152
48.7752285615465
49.3252773754624
49.8813551693701
50.4435470061075
51.0119874448682
51.5869495410462
52.1684694419117
52.7567666204697
53.3520591496775
53.9544012528036
54.5640500073319
55.181161255779
55.8058472979046
56.4383639953047
57.0788235829044
57.727399055996
58.3843188091506
59.0496937052022
59.7237240209409
60.4066114113019
61.0984871727298
61.7995544073111
62.5099984133483
63.2299760184159
63.9596767445911
64.6992875392261
65.4489807146127
66.2089262511522
66.9793305548114
67.7603628772634
68.55218022322
69.3550139690386
70.1690172675066
70.994344193353
71.8312502731913
72.6798641925551
73.5403466685806
74.412973671616
75.2978446819338
76.19513667808
77.1051370612314
78.0279164645466
78.9636773920598
79.9127059336668
80.8750487222561
81.8509405435811
82.8406542521835
83.8442175020011
84.8619016627299
85.8939602624315
86.9404034887252
88.0015399742858
89.0776062781938
90.1685905839494
91.2748317898639
92.3965595380778
93.5337439154923
94.6867448742336
95.8557914169045
97.0408389950979
98.2422569044858
99.4602803981171
100.69485186641
101.946339075297
103.214994793114
104.500747738315
105.803950217091
107.124889460412
108.463480284492
109.820037861791
111.194905967365
112.58798559288
113.99953419867
115.429969084065
116.87918174507
118.347354373337
119.834984627137
121.341966298213
122.868394264893
124.414838319882
125.98121385702
127.567525165312
129.174389426075
130.801772535988
132.449594945715
134.118471527003
135.808461578121
137.519423771987
139.251889768423
141.006070354772
142.781799654133
144.579412980198
146.399350699679
148.241436281875
150.105778005203
151.99301582965
153.903012057882
155.835688287607
157.791743993795
159.771176915889
161.773801215847
163.800168903957
165.850537808187
167.924705018679
170.022870506047
172.145647085703
174.2928467043
176.464384409755
178.661004304113
180.882682281387
183.129197786726
185.401056944223
187.698619129813
190.021651795826
192.370194515292
194.745002992205
197.145926929595
199.572747248346
202.026117820627
204.506256575018
207.01291398367
209.54617853455
212.106805313335
214.694602941012
217.309332945511
219.951662068127
222.621824695236
225.319551831593
228.044848431683
230.798535076026
233.580448463682
236.390311618913
239.228616231788
242.095814693526
244.991622451214
247.915862938717
250.869374068599
253.85216096858
256.863929194962
259.904766006285
262.975484081672
266.075850079084
269.205559354359
272.36507166873
275.554904793653
278.77474478013
282.024315734125
285.304393877857
288.615150801414
291.956254907152
295.327518349055
298.729874974341
302.163258912224
305.627300570086
309.121924442354
312.64815487204
316.205749036121
319.794275084068
323.41378012911
327.065345570608
330.748589582966
334.463011636133
338.208790102633
341.987005893247
345.797176122513
349.638749217437
353.51204657953
357.418074036716
361.356281714802
365.326087513245
369.327968847386
373.362804167364
377.429998241237
381.528946119044
385.660290066647
389.824753294729
394.021710143937
398.250537310547
402.512035948816
406.80676129432
411.134069941429
415.493333661299
419.8854815449
424.310911221642
428.768963797251
433.25901593202
437.782105245189
442.338486029244
446.92747248351
451.54844200632
456.202552526223
460.889929146198
465.609830067102
470.361616556192
475.146609200265
479.964806115792
484.815377544426
489.697665042901
494.613185679287
499.561781340971
504.542526547373
509.554797850093
514.600280290239
519.678591582256
524.788732709675
529.930256809895
535.104890758029
540.3119660065
545.550438466029
550.820266265995
556.122955429652
561.457562275166
566.823014589306
572.219995548408
577.649335600568
583.109942350575
588.600855995037
594.12351667178
599.677781364674
605.262537938768
610.877352478466
616.523754910291
622.200882131598
627.907602903488
633.644584080044
639.412439037774
645.210016048391
651.036510574147
656.893398008808
662.7800522605
668.695300213737
674.639470055996
680.613358714609
686.615779873995
692.645896250225
698.705101851438
704.792694893104
710.90745593011
717.049973420434
723.220651363653
729.418243207402
735.642200999408
741.893779199086
748.171934613259
754.475544324225
760.805738938597
767.162082543678
773.54328844094
779.949708765251
786.381757661666
792.838129505214
799.318384976919
805.823536498045
812.352382901001
818.903993384817
825.47951081512
832.078009748675
838.69827917174
845.341288701155
852.00647733709
858.692495449562
865.399977916725
872.128749480766
878.877402793626
885.646182431296
892.435276925879
899.243245327186
906.070001361673
912.915996472053
919.779768598287
926.661017434018
933.560323886624
940.476218175232
947.40828594817
954.357142557833
961.321302134886
968.300326808724
975.294793413923
982.303180523394
989.325116388479
996.361066416287
1003.40945549537
1010.47007732712
1017.54319096705
1024.62716256287
1031.72206772431
1038.82782585866
1045.94279383752
1053.06736894614
1060.20104687059
1067.3422642201
1074.49167425784
1081.64833489469
1088.81088359421
1095.98007744874
1103.15456454468
1110.33335548571
1117.51705953132
1124.70399068753
1131.8937648013
1139.08647574434
1146.28029017171
1153.47556508556
1160.67154241518
1167.86664472201
1175.06156484521
1182.25482275264
1189.44546337403
1196.63391279649
1203.81822640313
1210.99847778125
1218.17408187625
1225.34328215649
1232.50673685771
1239.66285202769
1246.8107147055
1253.95059025627
1261.08038070609
1268.20044150367
1275.30967047907
1282.40654410864
1289.49165632851
1296.56288407071
1303.62015821269
1310.66280781187
1317.68893247644
1324.69921861274
1331.69157883169
1338.66563121059
1345.62094688557
1352.55541178151
1359.46973954143
1366.36176830732
1373.23108877968
1380.07721214444
1386.89796467214
1393.69409181904
1400.4631809208
1407.20513767713
1413.91905586387
1420.60292338068
1427.25743918119
1433.87986607572
1440.47064680135
1447.02812516912
1453.55084935154
1460.03910761116
1466.49005765907
1472.90460710051
1479.28012189601
1485.61638665608
1491.91243183277
1498.1660445919
1504.3779882181
1510.54501973457
1516.66812909074
1522.74459620451
1528.7740385677
1534.75557407079
1540.68674222687
1546.56845633804
1552.39710472733
1558.17400792731
1563.89582857291
1569.56283432661
1575.17333117157
1580.72537643265
1586.21946431283
1591.65190955898
1597.02435542963
1602.33254525674
1607.5780201915
1612.75723372087
1617.87030584212
1622.91561824106
1627.89089729592
1632.79686912218
1637.62931203784
1642.39038246483
1647.07490051696
1651.68540818707
1656.21686235406
1660.67103246838
1665.04423357459
1669.33618770248
1673.54565774117
1677.66962764641
1681.70949587097
1685.65993928767
1689.52424152369
1693.29556771095
1696.97822299276
1700.56480094961
1704.0596118088
1707.45576828959
1710.75641725954
1713.95645383389
1717.05648812662
1720.05453064806
1722.94751426564
1725.73725822781
1728.41703316242
1730.99207209117
1733.45243345282
1735.80626678072
1738.04095923771
1740.16698395093
1742.16972160906
1744.06121736565
1745.82571202938
1747.47581680424
1748.99583158119
1750.39750680716
1751.66694490697
1752.81290940328
1753.82596053367
1754.70863156234
1755.45935546769
1756.07208462212
1756.55570253822
1756.88167632704
1757.09854328783
1757.09654410957
1757.01758305957
1756.84262372841
1756.43159988358
1755.91569361406
1755.22073793124
1754.39715872839
1753.400055981
1752.26282773196
1750.95413129054
1749.49696812614
1747.86862076881
1746.08478651845
1744.12914597278
1742.01169648575
1739.72127857986
1737.26316461569
1734.63057578502
1731.82467403261
1728.8425917941
1725.68178919075
1722.34287841959
1718.82018581999
1715.11702643062
1711.22543077045
1707.15070676269
1702.8831871491
1698.42966685992
1693.77924445265
1688.9397531482
1683.89952650863
1678.66695860124
1673.23011445957
1667.59746264408
1661.75728649146
1655.71766175196
1649.46755891957
1643.0142094538
1636.34774799011
1629.47404526338
1622.38501027573
1615.08444932812
1607.56683805996
1599.83312275082
1591.88113090275
1583.70842573791
1575.3163081387
1566.6992580183
1557.86137288456
1548.79492150377
1539.50592875608
1529.98542271015
1520.24024608281
1510.26149175822
1500.05540522816
1489.61472028418
1478.94334613568
1468.03762613112
1456.89724444138
1445.52366698101
1433.91196844528
1422.06756182794
1409.98291763039
1397.66535901284
1385.10696341402
1372.31435980622
1359.28250195269
1346.01364361122
1332.50939180128
1318.76556055065
1304.78933110219
1290.57325975387
1276.12613354861
1261.44176313359
1246.52574438969
1231.37852641994
1215.99843421626
1200.39349917067
1184.55691341238
1168.49930429277
1152.21579916818
1135.71198496635
1118.99283492789
1102.05439351363
1084.90913727874
1067.55081720483
1049.98943518825
1032.22890628389
1014.2675115049
996.120228518613
977.780484748768
959.260570786805
940.568103902214
921.699245812815
902.673990474498
883.487625688686
864.149995587986
844.679135209903
825.065593314601
805.330964788312
785.486159294183
765.525299803263
745.478349820408
725.345734693263
705.131341751867
684.870263492615
664.553049882613
644.19447227934
623.833481766261
603.453124915065
583.077026638524
562.749439165075
542.446761882806
522.198906912033
502.058435998989
481.995901304418
462.043003711765
442.26422922057
422.628012092224
403.159678138096
383.937852763411
364.939712833399
346.170167513776
327.721857608147
309.598277449174
291.766961935805
274.334694125447
257.33876312817
240.707683898703
224.555976384531
208.953656436725
193.798782918043
179.205366758924
165.266285457917
151.859510893219
139.095784452634
127.069943721508
115.647226155117
104.941602936498
95.0104983747032
85.7248844808696
77.2061260276539
69.4103352504417
62.2749919422996
55.8764651939289
50.087229282289
44.9313489856501
40.3530909057575
36.2910967668246
32.7314608426621
29.5902806557954
26.8521314637775
24.4478273380787
22.3540808221592
20.518890613998
18.9164456798351
17.5087075837708
16.2708435252765
15.1756161776822
14.2013832021884
13.3283011299702
12.5404306793939
11.8220032339579
11.1632202701539
10.5518683143881
9.98158110469886
9.44536899201525
8.93765076166777
8.45518061005794
7.99431893929637
7.55276639716843
7.1288922066925
6.72120745183707
6.3285837458892
5.95026329050348
5.58560947452042
5.23412619392862
4.89544983942094
4.5693001926869
4.25541819336612
3.95355054068465
3.66346069238887
3.38495379081302
3.11787262275482
2.86204828851274
2.61727248409892
2.38333417259083
2.16005602647399
1.94727365176269
1.74477479104884
1.55226286623668
1.36941961700564
1.19598176447497
1.03172116871256
0.876457123504002
0.73001184868741
0.592231008415531
0.462966126360368
0.342087265628458
0.229496597501216
0.125291023809025
0.0515421146114871
0.0223896434827118
0.00546792011785768
0

);

T
(
298
309.793419010089
316.934133757152
323.161361068549
328.891416276943
334.291269701678
339.449130760363
344.417965092566
349.233887090431
353.922127328656
358.501164238558
362.98547305726
367.386395971407
371.713044375331
375.972890054117
380.17216362806
384.316131986386
388.409298656417
392.455557312503
396.458266456786
400.420452672148
404.344640775341
408.233243868544
412.088294349996
415.911655019149
419.70506578053
423.470060315355
427.208007942602
430.920157056139
434.607678962827
438.271709277574
441.9132054492
445.533044664752
449.132096881375
452.711197420368
456.271034295537
459.812265608465
463.335606603089
466.841622500253
470.3308348927
473.803846240598
477.261126111668
480.70310373364
484.130295891266
487.543082051893
490.941837899722
494.327004234207
497.698878284323
501.057826467119
504.404189239536
507.738222655514
511.060283908633
514.37060841958
517.669472663503
520.957156358653
524.23385599889
527.499863814862
530.755351679515
534.000571259012
537.235714749123
540.460967447742
543.676552001331
546.882606682173
550.079357850575
553.266923991538
556.445514917327
559.615247740682
562.776304017393
565.928810399879
569.072914620871
572.208756428016
575.336453643086
578.456153837443
581.567953479827
584.672001205662
587.768378816029
590.857231894131
593.938632248377
597.012719964838
600.079559839787
603.13928535496
606.191955992184
609.237698235746
612.276567551777
615.308683068094
618.334097531768
621.352922336666
624.365208569165
627.371059816892
630.370526190713
633.363703279576
636.35064139466
639.33142725656
642.306113251916
645.274775467448
648.237471302661
651.194263364444
654.145217109468
657.090381130646
660.029826456903
662.963593080545
665.89175219918
668.814340051163
671.731425141165
674.643041915704
677.549254624022
680.450098649229
683.345630412891
686.235891204237
689.120925272131
692.000782767836
694.875496273648
697.745120446118
700.609682711367
703.469236145392
706.323809093977
709.17344728418
712.018185943318
714.858059411774
717.693110671559
720.523365540594
723.348868870588
726.169645023246
728.985734465568
731.797166447723
734.603971786616
737.406187338525
740.203836048463
742.996955966558
745.785570216919
748.569711754779
751.349409004196
754.124686860558
756.895578516814
759.662104493191
762.424296839587
765.182178852592
767.935775932138
770.685116742123
773.430221487411
776.171118903739
778.90783018152
781.640379959488
784.36879326259
787.09308957687
789.813295574423
792.529430289766
795.241516826744
797.949578558504
800.653633477621
803.353706024625
806.049814707638
808.741980403817
811.43022494941
814.114565716789
816.795024637032
819.471619928136
822.144370610455
824.813297252259
827.4784162366
830.139747848614
832.797310008041
835.451119579296
838.10119655243
840.747556455245
843.390217682351
846.029198327523
848.664513425428
851.296181983143
853.924219547911
856.548642236192
859.169468212877
861.786711678654
864.400389654508
867.010518613978
869.617112801641
872.220189423787
874.819762997583
877.41584860303
880.008463003302
882.59761930839
885.183333313347
887.765620733963
890.344494475498
892.919970432187
895.49206294259
898.06078553496
900.62615384629
903.188180845839
905.746880693785
908.302268526129
910.854356694119
913.4031594941
915.948691250317
918.490964570872
921.029993578091
923.565791663339
926.098371657571
928.62774788734
931.153932591612
933.676938672778
936.196780773603
938.713470177551
941.227019968808
943.73744442047
946.244754699974
948.74896406562
951.250086022357
953.748131673596
956.243114716992
958.735048082779
961.223942132096
963.709811377094
966.192668309699
968.672522549279
971.149389224153
973.62328033878
976.09420547738
978.562179611388
981.02721432677
983.489319889395
985.948510629068
988.404798230444
990.858193081882
993.308707448951
995.756341400154
998.201118218796
1000.64307997038
1003.08224004077
1005.51860354367
1007.95219026794
1010.38301498903
1012.81108049931
1015.23638803235
1017.65894964646
1020.07877310116
1022.49585819998
1024.91021729685
1027.32185875884
1029.73078115326
1032.13699627577
1034.54051360347
1036.94133085448
1039.3394584076
1041.73490743633
1044.12767505304
1046.51776954507
1048.90520415773
1051.28997561768
1053.67208971649
1056.0515619417
1058.42838882753
1060.80257330817
1063.17413322592
1065.54306542385
1067.90936966452
1070.27306547226
1072.63415097487
1074.9926228724
1077.34850092857
1079.70178599552
1082.05247219554
1084.40057682963
1086.74610588451
1089.08905229064
1091.42942628746
1093.76724180697
1096.10249151361
1098.43517771154
1100.76532068645
1103.09291438403
1105.41795481648
1107.74046454612
1110.06044164799
1112.37787786973
1114.69279142094
1117.00518952017
1119.31506270927
1121.62241635788
1123.92727094624
1126.22961740925
1128.52945047383
1130.82679537436
1133.12164908926
1135.41400136971
1137.70386863553
1139.99126189636
1142.27617042814
1144.55859353662
1146.83855684438
1149.11605248675
1151.3910700734
1153.66363185673
1155.93374359227
1158.20139349588
1160.46658261051
1162.72933723941
1164.98964773089
1167.24750264696
1169.50292498962
1171.75592131081
1174.00647901054
1176.254596012
1178.5003014557
1180.74358654591
1182.9844381137
1185.22287327172
1187.45890736828
1189.69252661532
1191.92372155871
1194.15252345026
1196.37893010188
1198.60292730084
1200.82451624548
1203.04372741111
1205.26054902797
1207.47496644714
1209.68699632914
1211.8966576441
1214.10393526029
1216.3088156022
1218.51132832266
1220.71147887985
1222.90925223743
1225.10463872397
1227.29767155408
1229.48834852389
1231.67665627495
1233.86258995607
1236.04617862715
1238.22741761614
1240.40629695307
1242.58281576831
1244.75699513738
1246.92883089199
1249.09831669878
1251.26545442779
1253.43025828688
1255.59272490535
1257.75285010934
1259.91063769194
1262.06609819848
1264.21922836438
1266.37002463484
1268.51849223986
1270.66463988026
1272.80846413103
1274.94996148688
1277.0891384439
1279.22600218241
1281.36054908472
1283.49277555242
1285.62268955151
1287.75029684448
1289.8755933721
1291.99857520864
1294.11925203135
1296.23762854669
1298.35370011078
1300.46746239985
1302.57892614908
1304.68809534752
1306.79496557478
1308.89953284951
1311.00180620872
1313.10178923467
1315.19947975924
1317.29487580952
1319.38798033669
1321.47879673174
1323.5673272332
1325.65357337479
1327.73752902839
1329.81919775509
1331.89858661219
1333.97570010328
1336.05052407564
1338.12306343714
1340.19332845931
1342.26132360668
1344.3270307947
1346.39045757354
1348.45161546947
1350.51050489881
1352.56710901044
1354.62143800436
1356.67350350288
1358.72329788049
1360.77081148735
1362.81605553896
1364.85903985855
1366.89974885589
1368.93818307549
1370.97435317254
1373.00826299219
1375.03989633128
1377.0692606052
1379.09636590295
1381.12120500866
1383.143770753
1385.16407272379
1387.18211731588
1389.19788972707
1391.21139408464
1393.22263951257
1395.23162181467
1397.23833225982
1399.24277948193
1401.24496912173
1403.24488750456
1405.24253865872
1407.23793103169
1409.23105775673
1411.22191323693
1413.21050572056
1415.19683771094
1417.18089655119
1419.16268807787
1421.14221886796
1423.11947820068
1425.09446639735
1427.06719008719
1429.0376449129
1431.00582536443
1432.97173707983
1434.93538049182
1436.89674692398
1438.85584061595
1440.81266436584
1442.76720920635
1444.71947711035
1446.66947168816
1448.61718567058
1450.56261859728
1452.50577377826
1454.4466459499
1456.38523284506
1458.32153734599
1460.25555554563
1462.18728362144
1464.11672437608
1466.04387490369
1467.96872992615
1469.89129216003
1471.81155942562
1473.72952557773
1475.64519292348
1477.55855958675
1479.46961924581
1481.37837363392
1483.28482071609
1485.18895440189
1487.09077586443
1488.99028261247
1490.88746900123
1492.78233557335
1494.67487928893
1496.56509517347
1498.45298278854
1500.3385387217
1502.22175883941
1504.10264130847
1505.98118281808
1507.85737966737
1509.7312287266
1511.60272712601
1513.47187088973
1515.33865608556
1517.20308030545
1519.06513882846
1520.92482753272
1522.78214402887
1524.63708273237
1526.48964004901
1528.33981276152
1530.18759455866
1532.03298306286
1533.87597329007
1535.71655880655
1537.5547381915
1539.39050437987
1541.22385194765
1543.05477897888
1544.88327666819
1546.70934220118
1548.53297058736
1550.35415331668
1552.17288909171
1553.98916937561
1555.80298821734
1557.61434300813
1559.42322239271
1561.22962575127
1563.03354461707
1564.83496919536
1566.63390068658
1568.43032453128
1570.2242388082
1572.01563742261
1573.80450670118
1575.59084914894
1577.37464967015
1579.15590390305
1580.93460704496
1582.71074363044
1584.48431600301
1586.25530808114
1588.02371508972
1589.78953136897
1591.55274042222
1593.31334496477
1595.0713260786
1596.82668121576
1598.57940154501
1600.3294705262
1602.07689107871
1603.82164092913
1605.56372109644
1607.30311700906
1609.03981558251
1610.77381639692
1612.50509592688
1614.23365813374
1615.95948079449
1617.68255950946
1619.40288400809
1621.12043492565
1622.83521486642
1624.54719613217
1626.25638336035
1627.9627522574
1629.66629681619
1631.36700687286
1633.064859858
1634.75985946051
1636.45197408664
1638.14120999327
1639.82753795197
1641.51095549269
1643.19144582714
1644.86898978786
1646.54358621364
1648.21520345099
1649.8838478131
1651.54948384526
1653.21211641502
1654.87171513343
1656.52827445369
1658.18177721203
1659.83220122098
1661.47954466961
1663.12377253427
1664.76489156786
1666.40286068505
1668.03768843037
1669.66933492044
1671.29780256105
1672.92306080525
1674.54509825446
1676.16389901064
1677.77943568469
1679.39170653306
1681.00067141442
1682.60633830739
1684.20865913564
1685.8076458633
1687.40324888619
1688.99547754891
1690.58428693762
1692.16967812654
1693.7516161322
1695.33008879421
1696.90507522898
1698.47654723404
1700.04449872618
1701.60888778957
1703.16971923807
1704.72694147344
1706.28056611726
1707.83053596798
1709.37686543788
1710.91949577037
1712.45844013546
1713.9936422298
1715.52511006288
1717.05279369674
1718.57669233559